feeders/123Bus/ieee123_VLN.Txt

SYMMETRICAL COMPONENT VOLTAGES BY BUS (for 3-phase buses)

Bus       Mag:   V1 (kV)    p.u.     V2 (kV)   %V2/V1    V0 (kV)    %V0/V1

150          2.402          1  7.373E-006   0.000307 6.016E-006 0.0002505
150r         2.507      1.044  1.036E-005  0.0004132 8.452E-006 0.0003372
149          2.507      1.044  1.036E-005  0.0004132 8.453E-006 0.0003372
1            2.488      1.036   0.006315     0.2538  0.009809    0.3943
2              2.5      1.041          0          0         0         0
3            2.482      1.033          0          0         0         0
7            2.474       1.03     0.0108     0.4364   0.01708    0.6904
4             2.48      1.033          0          0         0         0
5            2.478      1.032          0          0         0         0
6            2.477      1.031          0          0         0         0
8            2.466      1.027    0.01371     0.5563   0.02172    0.8811
12           2.493      1.038          0          0         0         0
9            2.437      1.015          0          0         0         0
13           2.453      1.021    0.01762     0.7182   0.02717     1.108
9r           2.421      1.008          0          0         0         0
14           2.417      1.006          0          0         0         0
34           2.447      1.019          0          0         0         0
18           2.436      1.014    0.01809     0.7424   0.03473     1.426
11           2.416      1.006          0          0         0         0
10           2.417      1.006          0          0         0         0
15           2.446      1.018          0          0         0         0
16           2.444      1.017          0          0         0         0
17           2.445      1.018          0          0         0         0
19           2.396     0.9977          0          0         0         0
21           2.435      1.014    0.01834     0.7533   0.03578     1.469
20           2.394     0.9968          0          0         0         0
22           2.475      1.031          0          0         0         0
23           2.434      1.013    0.01876     0.7708   0.03713     1.525
24           2.423      1.009          0          0         0         0
25           2.433      1.013    0.01924     0.7906   0.03879     1.594
25r          2.395     0.9973          0          0         0         0
26           2.395     0.9971          0          0         0         0
28           2.433      1.013    0.01947     0.8002   0.03962     1.629
27           2.394     0.9967          0          0         0         0
31           2.406      1.002          0          0         0         0
33           2.391     0.9954          0          0         0         0
29           2.432      1.013    0.01964     0.8073   0.04018     1.652
30           2.432      1.013    0.01963     0.8072   0.04003     1.646
250          2.432      1.013    0.01963     0.8072   0.04003     1.646
32           2.405      1.001          0          0         0         0
35           2.431      1.012    0.01871     0.7696   0.03461     1.423
36            2.39     0.9953          0          0         0         0
40           2.428      1.011    0.01901     0.7829   0.03464     1.426
37           2.389     0.9945          0          0         0         0
38            2.47      1.028          0          0         0         0
39           2.469      1.028          0          0         0         0
41           2.425       1.01          0          0         0         0
42           2.425       1.01    0.01931      0.796   0.03477     1.433
43           2.464      1.026          0          0         0         0
44           2.423      1.009     0.0196     0.8087   0.03496     1.443
45           2.381     0.9915          0          0         0         0
47           2.421      1.008    0.01976     0.8162    0.0346     1.429
46            2.38     0.9911          0          0         0         0
48            2.42      1.008    0.01982      0.819   0.03454     1.427
49            2.42      1.008    0.01983     0.8195   0.03417     1.412
50            2.42      1.007    0.01996     0.8248   0.03426     1.416
51            2.42      1.007    0.02005     0.8289   0.03455     1.428
151           2.42      1.007    0.02005     0.8289   0.03455     1.428
52           2.444      1.018     0.0207     0.8469    0.0314     1.285
53            2.44      1.016    0.02209     0.9052   0.03305     1.354
54           2.438      1.015    0.02286     0.9377   0.03378     1.386
55           2.438      1.015    0.02288     0.9384   0.03388      1.39
57           2.431      1.012    0.02347     0.9652   0.03479     1.431
56           2.438      1.015    0.02278     0.9347   0.03365      1.38
58           2.474       1.03          0          0         0         0
60           2.417      1.006    0.02548      1.054   0.03828     1.584
59           2.473       1.03          0          0         0         0
61           2.417      1.006    0.02548      1.054   0.03828     1.584
62           2.414      1.005    0.02516      1.043    0.0383     1.587
63           2.412      1.004    0.02509       1.04   0.03801     1.576
64           2.408      1.003    0.02446      1.016   0.03698     1.536
65           2.405      1.001    0.02409      1.002    0.0385     1.601
66           2.404      1.001    0.02369     0.9855   0.03976     1.654
67           2.483      1.034    0.02366      0.953   0.01934    0.7789
68           2.484      1.034          0          0         0         0
72           2.482      1.034    0.02395     0.9647   0.01894    0.7629
97           2.481      1.033    0.02395     0.9652   0.01983    0.7992
69            2.48      1.032          0          0         0         0
70           2.477      1.031          0          0         0         0
71           2.475       1.03          0          0         0         0
73           2.479      1.032          0          0         0         0
76           2.482      1.034    0.02459     0.9907   0.01782    0.7181
74           2.475       1.03          0          0         0         0
75           2.472      1.029          0          0         0         0
77           2.485      1.035    0.02424     0.9754   0.01783    0.7176
86           2.481      1.033    0.02585      1.042   0.01418    0.5714
78           2.486      1.035    0.02411       0.97   0.01806    0.7268
79           2.485      1.035    0.02424     0.9751   0.01832     0.737
80           2.489      1.036    0.02325     0.9341   0.01868    0.7506
81           2.491      1.037    0.02287     0.9183   0.01933    0.7759
82           2.493      1.038    0.02263     0.9077   0.01969    0.7896
84           2.485      1.035          0          0         0         0
83           2.496      1.039    0.02226     0.8918   0.01984    0.7948
85           2.482      1.033          0          0         0         0
87           2.481      1.033    0.02636      1.063   0.01262    0.5088
88           2.485      1.035          0          0         0         0
89           2.481      1.033    0.02633      1.061    0.0116    0.4675
90           2.466      1.027          0          0         0         0
91            2.48      1.033    0.02644      1.066   0.01096    0.4418
92           2.492      1.038          0          0         0         0
93            2.48      1.033    0.02664      1.074   0.01079     0.435
94           2.481      1.033          0          0         0         0
95            2.48      1.032    0.02676      1.079   0.01011    0.4075
96           2.464      1.026          0          0         0         0
98           2.481      1.033      0.024     0.9674   0.01982    0.7989
99            2.48      1.033     0.0238     0.9598   0.01925    0.7761
100           2.48      1.032    0.02358     0.9508   0.01969     0.794
450           2.48      1.032    0.02358     0.9508   0.01969     0.794
197          2.481      1.033    0.02395     0.9652   0.01983    0.7992
101           2.48      1.032    0.02419     0.9754   0.02034    0.8204
102          2.478      1.032          0          0         0         0
105          2.479      1.032    0.02494      1.006   0.02022    0.8158
103          2.474       1.03          0          0         0         0
104           2.47      1.028          0          0         0         0
106          2.472      1.029          0          0         0         0
108          2.478      1.032    0.02559      1.033   0.02187    0.8825
107          2.468      1.028          0          0         0         0
109          2.467      1.027          0          0         0         0
300          2.478      1.032    0.02559      1.033   0.02187    0.8825
110          2.462      1.025          0          0         0         0
111           2.46      1.024          0          0         0         0
112           2.46      1.024          0          0         0         0
113          2.455      1.022          0          0         0         0
114          2.454      1.022          0          0         0         0
135          2.436      1.014    0.01809     0.7424   0.03473     1.426
152          2.453      1.021    0.01762     0.7182   0.02717     1.108
160r         2.487      1.035    0.02324     0.9344   0.01753    0.7049
160          2.417      1.006    0.02548      1.054   0.03828     1.584
61s          2.417      1.006    0.02548      1.054   0.03828     1.584
300_open      2.42      1.007    0.02005     0.8289   0.03455     1.428
94_open      2.397     0.9978          0          0         0         0
610         0.2789      1.006    0.00294      1.054 9.862E-010 3.536E-007
